9
 energy: -8.013158151515 gnorm: 0.302947627139 xtb: 6.5.1 (conda-forge)
Be           0.00000000000000        0.00000000000000        0.00000000000000
Be           2.68800000000000        0.00000000000000        0.00000000000000
B            4.82200000000000        0.00000000000000        1.06700000000000
C            6.57100000000000        0.00000000000000        1.94150000000000
C            4.87700000000000        0.00000000000000        2.78850000000000
H            6.13100000000000        0.00000000000000        3.41550000000000
H            6.13100000000000        0.81400000000000        3.82250000000000
H            5.31700000000000        0.81400000000000        4.22950000000000
H            5.31700000000000        0.00000000000000        4.63650000000000
