11
 energy: -11.904462536581 gnorm: 0.000366699127 xtb: 6.5.1 (conda-forge)
Be           0.48087105628852        0.52043746792443       -1.02636138973886
C            0.68319510251161        0.57816088005766        0.49820524636585
C            0.86068544434258        0.62948286449703        1.74339075189002
C            1.04651078257834        0.68522117286781        3.04050164886365
C            1.23675962614138        0.75005260987597        4.28455818798919
H            2.78119458384110       -0.27184278803771        5.00723589315313
H            3.41448648373857       -0.70874280010718        5.24346395084596
H            1.32912144583068        2.56618717348083        5.08165074603048
H            1.35394394650501        3.32512771641621        5.34928729609477
H           -0.14011836321662       -0.05642496098730        5.46845085090522
H           -0.72665010857584       -0.39999133598458        5.89961681762067
