11
energy: -11.904462536581 gnorm: 0.000366699127 xtb: 6.5.1 (conda-forge)
Be      0.480871     0.520437    -1.026361
C       0.683195     0.578161     0.498205
C       0.860685     0.629483     1.743391
C       1.046511     0.685221     3.040502
C       1.236760     0.750053     4.284558
H       2.781195    -0.271843     5.007236
H       3.414486    -0.708743     5.243464
H       1.329121     2.566187     5.081651
H       1.353944     3.325128     5.349287
H      -0.140118    -0.056425     5.468451
H      -0.726650    -0.399991     5.899617
